(|SYSTEM|::|VERSION| '(20060802.))
#0Y |CHARSET|::|UTF-8|
#Y(#:|1 1 (DEFPACKAGE BSTREE)-1-1|
   #18Y(00 00 00 00 00 00 00 00 00 01 DA 01 04 31 E1 3E 19 01) ("BSTREE")
   (|COMMON-LISP|::|T| |COMMON-LISP|::|T| |COMMON-LISP|::|T|))
#Y(#:|1 1 (DEFPACKAGE BSTREE)-1-2|
   #17Y(00 00 00 00 00 00 00 00 00 01 DA DB 31 DE 3E 19 01)
   (("COMMON-LISP") "BSTREE")
   (|COMMON-LISP|::|T| |COMMON-LISP|::|T| |COMMON-LISP|::|T|))
#Y(#:|1 1 (DEFPACKAGE BSTREE)-1-3|
   #15Y(00 00 00 00 00 00 00 00 00 01 DA 31 CE 19 01) ("BSTREE")
   (|COMMON-LISP|::|T| |COMMON-LISP|::|NIL| |COMMON-LISP|::|NIL|))
#Y(#:|2 2 (IN-PACKAGE BSTREE)-2|
   #17Y(00 00 00 00 00 00 00 00 00 01 DA 31 E6 0F 01 19 01)
   ("BSTREE" |COMMON-LISP|::|*PACKAGE*|)
   (|COMMON-LISP|::|T| |COMMON-LISP|::|T| |COMMON-LISP|::|T|))
#Y(#:|4 4 (SHADOW 'COMMON-LISP:TREE-EQUAL)-3|
   #17Y(00 00 00 00 00 00 00 00 00 01 DA 38 01 31 DD 19 01)
   (|COMMON-LISP|::|TREE-EQUAL|)
   (|COMMON-LISP|::|T| |COMMON-LISP|::|T| |COMMON-LISP|::|T|))
#Y(#:|5 10 (DEFUN TREE-EQUAL (T1 T2) ...)-4|
   #20Y(00 00 00 00 00 00 00 00 00 01 DA 2F 01 DA DC 32 83 C5 19 01)
   (|BSTREE|::|TREE-EQUAL| |SYSTEM|::|REMOVE-OLD-DEFINITIONS|
    #Y(|BSTREE|::|TREE-EQUAL|
       #41Y(00 00 00 00 02 00 00 00 06 03 9F 20 0E 9E 20 08 94 02 94 02 28 74
            1C 09 00 19 03 AE AE 30 00 19 03 95 02 95 02 29 02 05 61)
       (|BSTREE|::|ATOM-EQUAL|)
       (|COMMON-LISP|::|T| |COMMON-LISP|::|T| |COMMON-LISP|::|T|)
       (|BSTREE|::|T1| |BSTREE|::|T2|) |COMMON-LISP|::|NIL|))
   (|COMMON-LISP|::|T| |COMMON-LISP|::|T| |COMMON-LISP|::|T|))
#Y(#:|11 13 (DEFTYPE BSTREE NIL ...)-5|
   #24Y(00 00 00 00 00 00 00 00 00 01 DA DB DC 32 89 DA DD DE 2D 03 05 C5 19
        01)
   (|BSTREE|::|BSTREE| |SYSTEM|::|DEFTYPE-EXPANDER|
    #Y(#:|DEFTYPE-BSTREE|
       #26Y(00 00 00 00 01 00 00 00 00 02 AD DA DA 2D 03 01 1D 03 C8 19 02 AD
            2F 02 19 02)
       (1. |SYSTEM|::|PROPER-LIST-LENGTH-IN-BOUNDS-P|
        |SYSTEM|::|TYPE-CALL-ERROR|
        (|COMMON-LISP|::|SATISFIES| |BSTREE|::|BSTREEP|))
       (|COMMON-LISP|::|T| |COMMON-LISP|::|T| |COMMON-LISP|::|T|))
    |COMMON-LISP|::|TYPE| "A BSTree is a Binary Search Tree"
    |SYSTEM|::|%SET-DOCUMENTATION|)
   (|COMMON-LISP|::|T| |COMMON-LISP|::|T| |COMMON-LISP|::|T|))
#Y(#:|14 20 (DEFUN BSTREEP (TREE) ...)-6|
   #20Y(00 00 00 00 00 00 00 00 00 01 DA 2F 01 DA DC 32 83 C5 19 01)
   (|BSTREE|::|BSTREEP| |SYSTEM|::|REMOVE-OLD-DEFINITIONS|
    #Y(|BSTREE|::|BSTREEP|
       #39Y(00 00 00 00 01 00 00 00 06 02 AD DA 30 01 1E 15 AD 32 0D 1F 10 AD
            72 48 DC 33 01 2D 1F 07 94 01 DA 30 01 19 02 19 02)
       ((|UTIL|::|SATIFIES| |UTIL|::|ELEMENTP|) |COMMON-LISP|::|TYPEP| 3.)
       (|COMMON-LISP|::|T| |COMMON-LISP|::|T| |COMMON-LISP|::|T|)
       (|BSTREE|::|TREE|)
       "A bstree is either an element or a three-member list
   the first of which is an element"))
   (|COMMON-LISP|::|T| |COMMON-LISP|::|T| |COMMON-LISP|::|T|))
#Y(#:|21 32 (DEFUN BSTREE-INSERT (ELE TREE) ...)-7|
   #20Y(00 00 00 00 00 00 00 00 00 01 DA 2F 01 DA DC 32 83 C5 19 01)
   (|BSTREE|::|BSTREE-INSERT| |SYSTEM|::|REMOVE-OLD-DEFINITIONS|
    #Y(|BSTREE|::|BSTREE-INSERT|
       #162Y(00 00 00 00 02 00 00 00 06 03 00 2B 02 7F 03 00 00 7F 02 00 01 68
             00 00 AC DA 8A 01 10 DC AD AF 6D 03 01 DE 63 DF 2D 06 06 16 01 1B
             68 16 01 1B 2F 06 00 00 19 04 06 00 01 19 04 68 00 01 6F 0B 68 01
             00 68 02 01 6F 0C 6C 40 68 02 01 2F 0D 1B 80 4B E2 AD AF 6D 09 01
             DE 63 E4 2D 06 06 16 01 68 00 01 AC 89 07 6B 16 01 06 00 01 1D 43
             68 00 00 68 01 01 6F 0B 8E 03 FF BC 68 00 00 68 01 01 6F 0B 38 04
             8C 37 FF B3 68 00 01 6F 0B 68 01 01 6F 0C 68 02 00 68 03 01 6F 0D
             28 FF 6D 14 61 03 19 04)
       ((|UTIL|::|SATIFIES| |UTIL|::|ELEMENTP|) |COMMON-LISP|::|TYPEP|
        |BSTREE|::|ELE|
        #Y(|BSTREE|::|BSTREE-INSERT-1|
           #16Y(00 00 00 00 01 00 00 00 00 02 9E 0C 00 01 19 02)
           (|COMMON-LISP|::|NIL|)
           (|COMMON-LISP|::|T| |COMMON-LISP|::|T| |COMMON-LISP|::|T|))
        1. |UTIL|::|ELEMENT| |SYSTEM|::|CHECK-TYPE-FAILED| |BSTREE|::|BSTREEP|
        |BSTREE|::|TREE|
        #Y(|BSTREE|::|BSTREE-INSERT-2|
           #16Y(00 00 00 00 01 00 00 00 00 02 9E 0C 00 02 19 02)
           (|COMMON-LISP|::|NIL|)
           (|COMMON-LISP|::|T| |COMMON-LISP|::|T| |COMMON-LISP|::|T|))
        |BSTREE|::|BSTREE| |BSTREE|::|BSTREE-ROOT| |BSTREE|::|BSTREE-LEFT|
        |BSTREE|::|BSTREE-RIGHT|)
       (|COMMON-LISP|::|T| |COMMON-LISP|::|T| |COMMON-LISP|::|T|)
       (|BSTREE|::|ELE| |BSTREE|::|TREE|) |COMMON-LISP|::|NIL|))
   (|COMMON-LISP|::|T| |COMMON-LISP|::|T| |COMMON-LISP|::|T|))
#Y(#:|33 36 (DEFUN BSTREE-ROOT (TREE) ...)-8|
   #20Y(00 00 00 00 00 00 00 00 00 01 DA 2F 01 DA DC 32 83 C5 19 01)
   (|BSTREE|::|BSTREE-ROOT| |SYSTEM|::|REMOVE-OLD-DEFINITIONS|
    #Y(|BSTREE|::|BSTREE-ROOT|
       #58Y(00 00 00 00 01 00 00 00 06 02 00 2B 01 7F 02 00 00 1B 13 06 00 00
            19 03 DB AD AF 6D 02 01 DD 63 DE 2D 06 05 16 01 68 00 00 AC 89 00
            6B 16 01 06 00 00 20 5F 06 00 00 5B 19 03)
       (|BSTREE|::|BSTREEP| |BSTREE|::|TREE|
        #Y(|BSTREE|::|BSTREE-ROOT-1|
           #16Y(00 00 00 00 01 00 00 00 00 02 9E 0C 00 01 19 02)
           (|COMMON-LISP|::|NIL|)
           (|COMMON-LISP|::|T| |COMMON-LISP|::|T| |COMMON-LISP|::|T|))
        1. |BSTREE|::|BSTREE| |SYSTEM|::|CHECK-TYPE-FAILED|)
       (|COMMON-LISP|::|T| |COMMON-LISP|::|T| |COMMON-LISP|::|T|)
       (|BSTREE|::|TREE|) |COMMON-LISP|::|NIL|))
   (|COMMON-LISP|::|T| |COMMON-LISP|::|T| |COMMON-LISP|::|T|))
#Y(#:|37 40 (DEFUN BSTREE-LEFT (TREE) ...)-9|
   #20Y(00 00 00 00 00 00 00 00 00 01 DA 2F 01 DA DC 32 83 C5 19 01)
   (|BSTREE|::|BSTREE-LEFT| |SYSTEM|::|REMOVE-OLD-DEFINITIONS|
    #Y(|BSTREE|::|BSTREE-LEFT|
       #57Y(00 00 00 00 01 00 00 00 06 02 00 2B 01 7F 02 00 00 1B 11 00 19 03
            DB AD AF 6D 02 01 DD 63 DE 2D 06 05 16 01 68 00 00 AC 89 00 6B 16
            01 06 00 00 20 61 06 00 00 5C 5B 19 03)
       (|BSTREE|::|BSTREEP| |BSTREE|::|TREE|
        #Y(|BSTREE|::|BSTREE-LEFT-1|
           #16Y(00 00 00 00 01 00 00 00 00 02 9E 0C 00 01 19 02)
           (|COMMON-LISP|::|NIL|)
           (|COMMON-LISP|::|T| |COMMON-LISP|::|T| |COMMON-LISP|::|T|))
        1. |BSTREE|::|BSTREE| |SYSTEM|::|CHECK-TYPE-FAILED|)
       (|COMMON-LISP|::|T| |COMMON-LISP|::|T| |COMMON-LISP|::|T|)
       (|BSTREE|::|TREE|) |COMMON-LISP|::|NIL|))
   (|COMMON-LISP|::|T| |COMMON-LISP|::|T| |COMMON-LISP|::|T|))
#Y(#:|41 44 (DEFUN BSTREE-RIGHT (TREE) ...)-10|
   #20Y(00 00 00 00 00 00 00 00 00 01 DA 2F 01 DA DC 32 83 C5 19 01)
   (|BSTREE|::|BSTREE-RIGHT| |SYSTEM|::|REMOVE-OLD-DEFINITIONS|
    #Y(|BSTREE|::|BSTREE-RIGHT|
       #58Y(00 00 00 00 01 00 00 00 06 02 00 2B 01 7F 02 00 00 1B 11 00 19 03
            DB AD AF 6D 02 01 DD 63 DE 2D 06 05 16 01 68 00 00 AC 89 00 6B 16
            01 06 00 00 20 61 06 00 00 5C 5C 5B 19 03)
       (|BSTREE|::|BSTREEP| |BSTREE|::|TREE|
        #Y(|BSTREE|::|BSTREE-RIGHT-1|
           #16Y(00 00 00 00 01 00 00 00 00 02 9E 0C 00 01 19 02)
           (|COMMON-LISP|::|NIL|)
           (|COMMON-LISP|::|T| |COMMON-LISP|::|T| |COMMON-LISP|::|T|))
        1. |BSTREE|::|BSTREE| |SYSTEM|::|CHECK-TYPE-FAILED|)
       (|COMMON-LISP|::|T| |COMMON-LISP|::|T| |COMMON-LISP|::|T|)
       (|BSTREE|::|TREE|) |COMMON-LISP|::|NIL|))
   (|COMMON-LISP|::|T| |COMMON-LISP|::|T| |COMMON-LISP|::|T|))
#Y(#:|45 47 (DEFUN DEPTH (TREE) ...)-11|
   #20Y(00 00 00 00 00 00 00 00 00 01 DA 2F 01 DA DC 32 83 C5 19 01)
   (|BSTREE|::|DEPTH| |SYSTEM|::|REMOVE-OLD-DEFINITIONS|
    #Y(|BSTREE|::|DEPTH|
       #23Y(00 00 00 00 01 00 00 00 06 02 9E 20 07 AD 6F 01 32 97 19 02 C5 19
            02)
       (0. |BSTREE|::|MAX-DEPTH-MEMBERS|)
       (|COMMON-LISP|::|T| |COMMON-LISP|::|T| |COMMON-LISP|::|T|)
       (|BSTREE|::|TREE|) |COMMON-LISP|::|NIL|))
   (|COMMON-LISP|::|T| |COMMON-LISP|::|T| |COMMON-LISP|::|T|))
#Y(#:|48 52 (DEFUN MAX-DEPTH-MEMBERS (TREE) ...)-12|
   #20Y(00 00 00 00 00 00 00 00 00 01 DA 2F 01 DA DC 32 83 C5 19 01)
   (|BSTREE|::|MAX-DEPTH-MEMBERS| |SYSTEM|::|REMOVE-OLD-DEFINITIONS|
    #Y(|BSTREE|::|MAX-DEPTH-MEMBERS|
       #67Y(00 00 00 00 01 00 00 00 06 02 00 2B 01 7F 02 00 00 1B 11 CA 19 03
            DA AD AF 6D 01 01 DC 63 DD 2D 06 04 16 01 68 00 00 AC 8F 0D 6B 16
            01 06 00 00 1D 61 06 00 00 78 6F 06 06 01 00 79 6C 4C 33 01 33 19
            03)
       (|BSTREE|::|TREE|
        #Y(|BSTREE|::|MAX-DEPTH-MEMBERS-1|
           #16Y(00 00 00 00 01 00 00 00 00 02 9E 0C 00 01 19 02)
           (|COMMON-LISP|::|NIL|)
           (|COMMON-LISP|::|T| |COMMON-LISP|::|T| |COMMON-LISP|::|T|))
        1. |COMMON-LISP|::|LIST| |SYSTEM|::|CHECK-TYPE-FAILED| 0.
        |BSTREE|::|DEPTH|)
       (|COMMON-LISP|::|T| |COMMON-LISP|::|T| |COMMON-LISP|::|T|)
       (|BSTREE|::|TREE|) |COMMON-LISP|::|NIL|))
   (|COMMON-LISP|::|T| |COMMON-LISP|::|T| |COMMON-LISP|::|T|))
